OceanMesh2D
Run_001
1         	 ! NFOVER - NONFATAL ERROR OVERRIDE OPTION
0        	 ! NABOUT - ABREVIATED OUTPUT OPTION PARAMETER
1800        	 ! NSCREEN - OUTPUT TO UNIT 6 PARAMETER
0        	 ! IHOT - HOT START OPTION PARAMETER
2        	 ! ICS - COORDINATE SYSTEM OPTION PARAMETER
511112        	 ! IM - MODEL RUN TYPE: 0,10,20,30 = 2DDI, 1,11,21,31 = 3D(VS), 2 = 3D(DSS)
1        	 ! NOLIBF - NONLINEAR BOTTOM FRICTION OPTION
2        	 ! NOLIFA - OPTION TO INCLUDE FINITE AMPLITUDE TERMS
1        	 ! NOLICA - OPTION TO INCLUDE CONVECTIVE ACCELERATION TERMS 
1        	 ! NOLICAT - OPTION TO CONSIDER TIME DERIVATIVE OF CONV ACC TERMS
0        	 ! NWP - Number of nodal attributes.
1   	 	 ! NCOR - VARIABLE CORIOLIS IN SPACE OPTION PARAMETER
0   	 	 ! NTIP - TIDAL POTENTIAL OPTION PARAMETER
306  	 	 ! NWS - 306 WIND STRESS AND BAROMETRIC PRESSURE OPTION PARAMETER set 0 to turn off wind
0   	 	 ! NRAMP - RAMP FUNCTION OPTION
9.810000   	 ! G - ACCELERATION DUE TO GRAVITY - DETERMINES UNITS
-3   	 	 ! TAU0 - WEIGHTING FACTOR IN GWCE
1  	 	 ! DTDP - TIME STEP (IN SECONDS)
0  	 	 ! STATIM - STARTING SIMULATION TIME IN DAYS
0  	 	 ! REFTIM - REFERENCE TIME (IN DAYS) FOR NODAL FACTORS AND EQUILIBRIUM ARGS
10 10 -7.6 178 0.2 0.2 3600 3600    ! NWLAT, NWLON, WLATMAX, WLONMIN, WLATINC, WLONINC, WTIMINC,rstiminc 
1  	 	 ! RNDY - TOTAL LENGTH OF SIMULATION (IN DAYS)11.25 
1  	 	 ! DRAMP 
0 1 0  	 ! A00, B00, C00 
0.1 0 0 0.01    	 ! H0, 2*dummy, VELMIN 
179.109377 -8.524843  	 	 ! SLAM0, SFEA0 
0.002500     	 ! CF 
-0.050000     	 ! ELSM 
0.000000   	 ! CORI 
0  	 	 ! NTIF set 0 to read fort.19
0   	 	 ! NBFR set 0 to read fort.19
90                                       ! ANGINN - MINIMUM ANGLE FOR TANGENTIAL FLOW
0 0.000000 0.000000 0                    ! NOUTE, TOUTSE, TOUTFE, NSPOOLE - FORT 61 OPTIONS
0                                        ! NSTAE - NUMBER OF ELEVATION RECORDING STATIONS, FOLLOWED BY LOCATIONS ON PROCEEDING LINES
0 0.000000 0.000000 0                    ! NOUTV, TOUTSV, TOUTFV, NSPOOLV - FORT 62 OPTIONS
0                                        ! NSTAV - NUMBER OF VELOCITY RECORDING STATIONS, FOLLOWED BY LOCATIONS ON PROCEEDING LINES
0 0.000000 0.000000 0                    ! NOUTM, TOUTSM, TOUTFM, NSPOOLM - METEOROLOCIAL OUTPUT INFO
0                                        ! NSTAM - NUMBER OF METEOROLOGICAL RECORDING STATIONS, FOLLOWED BY LOCATIONS ON PROCEEDING LINES
-1 0.000000 100 3600               ! NOUTGE, TOUTSGE, TOUTFGE, NSPOOLGE - GLOBAL ELEVATION OUTPUT INFO (UNIT 63)
-1 0.000000 100 3600               ! NOUTGV, TOUTSGV, TOUTFGV, NSPOOLGV - GLOBAL VELOCITY OUTPUT INFO (UNIT 64)
-1 0.000000 100 3600               ! NOUTGM,TOUTSGM,TOUTFGM,NSPOOLGM  - GLOBAL METEOROLOGICAL OUTPUT INFO (UNIT 73/74)
0                                        ! NHARF - NUMBER OF FREQENCIES IN HARMONIC ANALYSIS
0.000000 0.000000 0 0.000000             ! THAS,THAF,NHAINC,FMV - HARMONIC ANALYSIS PARAMETERS
0 0 0 0                                  ! NHASE,NHASV,NHAGE,NHAGV - CONTROL HARMONIC ANALYSIS AND OUTPUT TO UNITS 51,52,53,54
3 3600                                   ! NHSTAR,NHSINC - HOT START FILE GENERATION PARAMETERS
0 0 1e-010 50                            ! ITITER, ISLDIA, CONVCR, ITMAX - ALGEBRAIC SOLUTION PARAMETERS
&timeBathyControl  !NDDT, BTIMINC, BCHGTIMINC -- BATHYMETRY TIME RECORDS (IN SECONDS) AND TRANSITION TIME
    NDDT = 0
    BTIMINC = 0
    BCHGTIMINC = 43200
/
&metControl
     WindDragLimit=   2.0000000000000000E-003 ,
     DragLawString='Powell    ',
     rhoAir=   1.1499999999999999
/
&SWANOUTPUTCONTROL
 SWAN_OUTPUTHS=T,
 SWAN_OUTPUTDIR=T,
 SWAN_OUTPUTTM01=T,
 SWAN_OUTPUTTPS=T,
 SWAN_OUTPUTWIND=T,
 SWAN_OUTPUTTM02=T,
 SWAN_OUTPUTTMM10=T,
/
     DragLawString='Powell    ',
     rhoAir=   1.1499999999999999
/
